       4
SCF Done              -0.06197691
Ar            0.000000000         0.000000000         0.000000000
Ar            2.658120000         2.658120000         0.000000000
Ar            2.658120000         0.000000000         2.658120000
Ar            0.000000000         2.658120000         2.658120000
