       9
SCF Done            -172.08981439
Si            2.348691377        -0.000215458         0.000003859
Si           -1.107881967         1.996805578         3.661971836
Si            1.391241560         2.333852404         1.830326127
O             1.479209297         1.199789890         0.661850727
O             0.365316106         1.842765527         2.998873111
O             3.286951208         0.643162663         4.323849782
O             0.787544852         3.687104706         1.168839229
O             2.864513110         2.487562997         2.493418582
O            -1.020099908         3.130671122         4.830630887
