       9
SCF Done     88301226091.02185059
Si            2.310028400         0.000000000         3.603599640
Si            0.000000000         2.000458280         1.801799982
Si            2.605971600         2.256741720         0.000000000
O             2.035715600         1.141355320         4.245401160
O             3.598020400         0.621551200         2.443601178
O             4.197772400         2.494293437         0.641801142
O             1.317979600         1.762906520         1.159998840
O             2.880284351         3.635648757         4.763658858
O             0.717736000         3.115844680         2.961798822
